<?xml version="1.0" encoding="UTF-8"?>

<!-- generated on 2023-01-25 14:38:07.146971 by randomTrips.py UNKNOWN
<configuration>
    <end value="1200"/>
    <net-file value="/Users/zixuan/Desktop/UCB/Capstone_AIForTraffic/1028-SUMOnetwork/SUMO_Network.net.xml"/>
    <period value="0.35"/>
    <route-file value="0123testing3.rou.xml"/>
</configuration>
-->

<!-- generated on 2023-01-25 14:38:07 by Eclipse SUMO duarouter Version 1.14.1
<configuration xmlns:xsi="http://www.w3.org/2001/XMLSchema-instance" xsi:noNamespaceSchemaLocation="http://sumo.dlr.de/xsd/duarouterConfiguration.xsd">

    <input>
        <net-file value="/Users/zixuan/Desktop/UCB/Capstone_AIForTraffic/1028-SUMOnetwork/SUMO_Network.net.xml"/>
        <route-files value="trips.trips.xml"/>
    </input>

    <output>
        <output-file value="0123testing3.rou.xml"/>
        <alternatives-output value="NUL"/>
    </output>

    <time>
        <begin value="0"/>
        <end value="1200"/>
    </time>

    <report>
        <no-warnings value="true"/>
        <ignore-errors value="true"/>
        <no-step-log value="true"/>
    </report>

</configuration>
-->

<routes xmlns:xsi="http://www.w3.org/2001/XMLSchema-instance" xsi:noNamespaceSchemaLocation="http://sumo.dlr.de/xsd/routes_file.xsd">
    <vehicle id="0" depart="0.00">
        <route edges="-8 -6 -3 -0"/>
    </vehicle>
    <vehicle id="4" depart="1.40">
        <route edges="-6 -3 -0"/>
    </vehicle>
    <vehicle id="10" depart="3.50">
        <route edges="0 3 6"/>
    </vehicle>
    <vehicle id="11" depart="3.85">
        <route edges="-5 -3"/>
    </vehicle>
    <vehicle id="15" depart="5.25">
        <route edges="0 3 6"/>
    </vehicle>
    <vehicle id="16" depart="5.60">
        <route edges="-7 9"/>
    </vehicle>
    <vehicle id="17" depart="5.95">
        <route edges="-5 4"/>
    </vehicle>
    <vehicle id="19" depart="6.65">
        <route edges="3 4"/>
    </vehicle>
    <vehicle id="20" depart="7.00">
        <route edges="-9 -6 -3 -0"/>
    </vehicle>
    <vehicle id="23" depart="8.05">
        <route edges="-2 1"/>
    </vehicle>
    <vehicle id="24" depart="8.40">
        <route edges="-8 -6 -3 2"/>
    </vehicle>
    <vehicle id="26" depart="9.10">
        <route edges="-4 6 9"/>
    </vehicle>
    <vehicle id="27" depart="9.45">
        <route edges="-8 -6 5"/>
    </vehicle>
    <vehicle id="32" depart="11.20">
        <route edges="3 6 7"/>
    </vehicle>
    <vehicle id="33" depart="11.55">
        <route edges="-3 -0"/>
    </vehicle>
    <vehicle id="37" depart="12.95">
        <route edges="-8 -6 -3 2"/>
    </vehicle>
    <vehicle id="38" depart="13.30">
        <route edges="3"/>
    </vehicle>
    <vehicle id="44" depart="15.40">
        <route edges="-2 -0"/>
    </vehicle>
    <vehicle id="46" depart="16.10">
        <route edges="0 3"/>
    </vehicle>
    <vehicle id="47" depart="16.45">
        <route edges="-1 2"/>
    </vehicle>
    <vehicle id="50" depart="17.50">
        <route edges="-1 3 6"/>
    </vehicle>
    <vehicle id="52" depart="18.20">
        <route edges="-4 5"/>
    </vehicle>
    <vehicle id="58" depart="20.30">
        <route edges="-4 5"/>
    </vehicle>
    <vehicle id="59" depart="20.65">
        <route edges="-8 -6 -3"/>
    </vehicle>
    <vehicle id="60" depart="21.00">
        <route edges="0 3 4"/>
    </vehicle>
    <vehicle id="61" depart="21.35">
        <route edges="0 3 4"/>
    </vehicle>
    <vehicle id="63" depart="22.05">
        <route edges="-1 3 6 9"/>
    </vehicle>
    <vehicle id="64" depart="22.40">
        <route edges="3 6 7"/>
    </vehicle>
    <vehicle id="66" depart="23.10">
        <route edges="3 6 9"/>
    </vehicle>
    <vehicle id="68" depart="23.80">
        <route edges="-1 3 6 7"/>
    </vehicle>
    <vehicle id="72" depart="25.20">
        <route edges="-6"/>
    </vehicle>
    <vehicle id="84" depart="29.40">
        <route edges="-3"/>
    </vehicle>
    <vehicle id="92" depart="32.20">
        <route edges="-5 -3 2"/>
    </vehicle>
    <vehicle id="100" depart="35.00">
        <route edges="6 9"/>
    </vehicle>
    <vehicle id="102" depart="35.70">
        <route edges="-6"/>
    </vehicle>
    <vehicle id="103" depart="36.05">
        <route edges="-5 -3 -0"/>
    </vehicle>
    <vehicle id="105" depart="36.75">
        <route edges="-4 6 7"/>
    </vehicle>
    <vehicle id="107" depart="37.45">
        <route edges="6 9"/>
    </vehicle>
    <vehicle id="109" depart="38.15">
        <route edges="-2 1"/>
    </vehicle>
    <vehicle id="113" depart="39.55">
        <route edges="-7 8"/>
    </vehicle>
    <vehicle id="117" depart="40.95">
        <route edges="-3"/>
    </vehicle>
    <vehicle id="119" depart="41.65">
        <route edges="-8 -6 5"/>
    </vehicle>
    <vehicle id="120" depart="42.00">
        <route edges="-6 5"/>
    </vehicle>
    <vehicle id="121" depart="42.35">
        <route edges="-7 9"/>
    </vehicle>
    <vehicle id="123" depart="43.05">
        <route edges="-3 2"/>
    </vehicle>
    <vehicle id="125" depart="43.75">
        <route edges="-4 6 7"/>
    </vehicle>
    <vehicle id="126" depart="44.10">
        <route edges="-1 3"/>
    </vehicle>
    <vehicle id="127" depart="44.45">
        <route edges="6 9"/>
    </vehicle>
    <vehicle id="129" depart="45.15">
        <route edges="-4 6 9"/>
    </vehicle>
    <vehicle id="131" depart="45.85">
        <route edges="-5 -3"/>
    </vehicle>
    <vehicle id="132" depart="46.20">
        <route edges="3 6"/>
    </vehicle>
    <vehicle id="134" depart="46.90">
        <route edges="-8 -6 -3 -0"/>
    </vehicle>
    <vehicle id="135" depart="47.25">
        <route edges="0 1"/>
    </vehicle>
    <vehicle id="139" depart="48.65">
        <route edges="-4 5"/>
    </vehicle>
    <vehicle id="140" depart="49.00">
        <route edges="-9 -6"/>
    </vehicle>
    <vehicle id="145" depart="50.75">
        <route edges="-1 3 6 7"/>
    </vehicle>
    <vehicle id="148" depart="51.80">
        <route edges="-6 -3 -0"/>
    </vehicle>
    <vehicle id="150" depart="52.50">
        <route edges="3 4"/>
    </vehicle>
    <vehicle id="151" depart="52.85">
        <route edges="3 4"/>
    </vehicle>
    <vehicle id="156" depart="54.60">
        <route edges="-3"/>
    </vehicle>
    <vehicle id="160" depart="56.00">
        <route edges="3 6 9"/>
    </vehicle>
    <vehicle id="162" depart="56.70">
        <route edges="-1 3 6"/>
    </vehicle>
    <vehicle id="163" depart="57.05">
        <route edges="-4 6 9"/>
    </vehicle>
    <vehicle id="165" depart="57.75">
        <route edges="0 1"/>
    </vehicle>
    <vehicle id="174" depart="60.90">
        <route edges="-8 -6 -3 2"/>
    </vehicle>
    <vehicle id="182" depart="63.70">
        <route edges="-5 4"/>
    </vehicle>
    <vehicle id="183" depart="64.05">
        <route edges="-4 6"/>
    </vehicle>
    <vehicle id="184" depart="64.40">
        <route edges="-1 3 6 9"/>
    </vehicle>
    <vehicle id="187" depart="65.45">
        <route edges="-5 -3 -0"/>
    </vehicle>
    <vehicle id="194" depart="67.90">
        <route edges="6"/>
    </vehicle>
    <vehicle id="200" depart="70.00">
        <route edges="-6"/>
    </vehicle>
    <vehicle id="204" depart="71.40">
        <route edges="-8 -6 -3 2"/>
    </vehicle>
    <vehicle id="205" depart="71.75">
        <route edges="0 3 6 7"/>
    </vehicle>
    <vehicle id="206" depart="72.10">
        <route edges="-9 -6"/>
    </vehicle>
    <vehicle id="207" depart="72.45">
        <route edges="-3 -0"/>
    </vehicle>
    <vehicle id="212" depart="74.20">
        <route edges="-6"/>
    </vehicle>
    <vehicle id="213" depart="74.55">
        <route edges="-8 -6 -3 -0"/>
    </vehicle>
    <vehicle id="214" depart="74.90">
        <route edges="0 3 6 7"/>
    </vehicle>
    <vehicle id="224" depart="78.40">
        <route edges="0 3 4"/>
    </vehicle>
    <vehicle id="225" depart="78.75">
        <route edges="3 6"/>
    </vehicle>
    <vehicle id="228" depart="79.80">
        <route edges="0 3 4"/>
    </vehicle>
    <vehicle id="234" depart="81.90">
        <route edges="-9 -6 -3 -0"/>
    </vehicle>
    <vehicle id="235" depart="82.25">
        <route edges="-5 4"/>
    </vehicle>
    <vehicle id="239" depart="83.65">
        <route edges="3 6 7"/>
    </vehicle>
    <vehicle id="240" depart="84.00">
        <route edges="-5 -3 -0"/>
    </vehicle>
    <vehicle id="242" depart="84.70">
        <route edges="3 6 9"/>
    </vehicle>
    <vehicle id="246" depart="86.10">
        <route edges="-6 -3 -0"/>
    </vehicle>
    <vehicle id="248" depart="86.80">
        <route edges="-5 -3"/>
    </vehicle>
    <vehicle id="249" depart="87.15">
        <route edges="-6 -3"/>
    </vehicle>
    <vehicle id="250" depart="87.50">
        <route edges="-8 -6 -3 -0"/>
    </vehicle>
    <vehicle id="251" depart="87.85">
        <route edges="-5 4"/>
    </vehicle>
    <vehicle id="254" depart="88.90">
        <route edges="-1 2"/>
    </vehicle>
    <vehicle id="257" depart="89.95">
        <route edges="0 3 6 7"/>
    </vehicle>
    <vehicle id="259" depart="90.65">
        <route edges="-1 3 4"/>
    </vehicle>
    <vehicle id="261" depart="91.35">
        <route edges="-8 7"/>
    </vehicle>
    <vehicle id="262" depart="91.70">
        <route edges="-8 7"/>
    </vehicle>
    <vehicle id="269" depart="94.15">
        <route edges="-9 -6 -3"/>
    </vehicle>
    <vehicle id="270" depart="94.50">
        <route edges="0 3 6 9"/>
    </vehicle>
    <vehicle id="271" depart="94.85">
        <route edges="-2 -0"/>
    </vehicle>
    <vehicle id="272" depart="95.20">
        <route edges="-4 6"/>
    </vehicle>
    <vehicle id="274" depart="95.90">
        <route edges="-9 -6 -3 -0"/>
    </vehicle>
    <vehicle id="275" depart="96.25">
        <route edges="-9 -6 5"/>
    </vehicle>
    <vehicle id="280" depart="98.00">
        <route edges="-6 -3 2"/>
    </vehicle>
    <vehicle id="282" depart="98.70">
        <route edges="3 6 7"/>
    </vehicle>
    <vehicle id="284" depart="99.40">
        <route edges="-8 7"/>
    </vehicle>
    <vehicle id="287" depart="100.45">
        <route edges="-4 6 7"/>
    </vehicle>
    <vehicle id="293" depart="102.55">
        <route edges="-6 5"/>
    </vehicle>
    <vehicle id="294" depart="102.90">
        <route edges="-5 -3 -0"/>
    </vehicle>
    <vehicle id="299" depart="104.65">
        <route edges="-1 3 6 9"/>
    </vehicle>
    <vehicle id="302" depart="105.70">
        <route edges="-9 -6 5"/>
    </vehicle>
    <vehicle id="311" depart="108.85">
        <route edges="-3"/>
    </vehicle>
    <vehicle id="318" depart="111.30">
        <route edges="-3 -0"/>
    </vehicle>
    <vehicle id="321" depart="112.35">
        <route edges="-9 -6 -3"/>
    </vehicle>
    <vehicle id="322" depart="112.70">
        <route edges="3"/>
    </vehicle>
    <vehicle id="323" depart="113.05">
        <route edges="3 4"/>
    </vehicle>
    <vehicle id="325" depart="113.75">
        <route edges="-3 -0"/>
    </vehicle>
    <vehicle id="337" depart="117.95">
        <route edges="-8 -6 5"/>
    </vehicle>
    <vehicle id="340" depart="119.00">
        <route edges="-8 -6 -3"/>
    </vehicle>
    <vehicle id="341" depart="119.35">
        <route edges="-3 -0"/>
    </vehicle>
    <vehicle id="342" depart="119.70">
        <route edges="-1 3"/>
    </vehicle>
    <vehicle id="352" depart="123.20">
        <route edges="-2 1"/>
    </vehicle>
    <vehicle id="357" depart="124.95">
        <route edges="-6 -3 -0"/>
    </vehicle>
    <vehicle id="358" depart="125.30">
        <route edges="-1 3"/>
    </vehicle>
    <vehicle id="361" depart="126.35">
        <route edges="3 4"/>
    </vehicle>
    <vehicle id="362" depart="126.70">
        <route edges="6 9"/>
    </vehicle>
    <vehicle id="364" depart="127.40">
        <route edges="-1 3 6 7"/>
    </vehicle>
    <vehicle id="365" depart="127.75">
        <route edges="-6 5"/>
    </vehicle>
    <vehicle id="367" depart="128.45">
        <route edges="-8 -6 5"/>
    </vehicle>
    <vehicle id="368" depart="128.80">
        <route edges="-6 -3"/>
    </vehicle>
    <vehicle id="370" depart="129.50">
        <route edges="-9 8"/>
    </vehicle>
    <vehicle id="371" depart="129.85">
        <route edges="-4 6"/>
    </vehicle>
    <vehicle id="372" depart="130.20">
        <route edges="-4 6 9"/>
    </vehicle>
    <vehicle id="373" depart="130.55">
        <route edges="0 3 4"/>
    </vehicle>
    <vehicle id="375" depart="131.25">
        <route edges="-4 6 9"/>
    </vehicle>
    <vehicle id="376" depart="131.60">
        <route edges="-5 4"/>
    </vehicle>
    <vehicle id="379" depart="132.65">
        <route edges="-3 2"/>
    </vehicle>
    <vehicle id="382" depart="133.70">
        <route edges="-7 9"/>
    </vehicle>
    <vehicle id="385" depart="134.75">
        <route edges="-8 -6"/>
    </vehicle>
    <vehicle id="389" depart="136.15">
        <route edges="-6 -3"/>
    </vehicle>
    <vehicle id="390" depart="136.50">
        <route edges="0 3"/>
    </vehicle>
    <vehicle id="397" depart="138.95">
        <route edges="-4 6 7"/>
    </vehicle>
    <vehicle id="402" depart="140.70">
        <route edges="-6 -3"/>
    </vehicle>
    <vehicle id="411" depart="143.85">
        <route edges="-8 7"/>
    </vehicle>
    <vehicle id="413" depart="144.55">
        <route edges="-1 3 4"/>
    </vehicle>
    <vehicle id="415" depart="145.25">
        <route edges="3"/>
    </vehicle>
    <vehicle id="417" depart="145.95">
        <route edges="-9 -6 -3 2"/>
    </vehicle>
    <vehicle id="418" depart="146.30">
        <route edges="-8 -6 -3"/>
    </vehicle>
    <vehicle id="427" depart="149.45">
        <route edges="6 9"/>
    </vehicle>
    <vehicle id="430" depart="150.50">
        <route edges="3"/>
    </vehicle>
    <vehicle id="431" depart="150.85">
        <route edges="-9 8"/>
    </vehicle>
    <vehicle id="432" depart="151.20">
        <route edges="-1 3 6 7"/>
    </vehicle>
    <vehicle id="436" depart="152.60">
        <route edges="-3 -0"/>
    </vehicle>
    <vehicle id="441" depart="154.35">
        <route edges="-1 3 6 7"/>
    </vehicle>
    <vehicle id="442" depart="154.70">
        <route edges="3 6"/>
    </vehicle>
    <vehicle id="447" depart="156.45">
        <route edges="-3 2"/>
    </vehicle>
    <vehicle id="448" depart="156.80">
        <route edges="-6"/>
    </vehicle>
    <vehicle id="456" depart="159.60">
        <route edges="-4 6 7"/>
    </vehicle>
    <vehicle id="457" depart="159.95">
        <route edges="-8 -6 -3 2"/>
    </vehicle>
    <vehicle id="458" depart="160.30">
        <route edges="-8 -6 5"/>
    </vehicle>
    <vehicle id="464" depart="162.40">
        <route edges="-9 -6 -3"/>
    </vehicle>
    <vehicle id="465" depart="162.75">
        <route edges="-4 6"/>
    </vehicle>
    <vehicle id="466" depart="163.10">
        <route edges="-3"/>
    </vehicle>
    <vehicle id="467" depart="163.45">
        <route edges="-7 9"/>
    </vehicle>
    <vehicle id="468" depart="163.80">
        <route edges="-7 8"/>
    </vehicle>
    <vehicle id="469" depart="164.15">
        <route edges="0 1"/>
    </vehicle>
    <vehicle id="470" depart="164.50">
        <route edges="0 3"/>
    </vehicle>
    <vehicle id="471" depart="164.85">
        <route edges="0 3 6"/>
    </vehicle>
    <vehicle id="472" depart="165.20">
        <route edges="-5 -3"/>
    </vehicle>
    <vehicle id="476" depart="166.60">
        <route edges="6 7"/>
    </vehicle>
    <vehicle id="478" depart="167.30">
        <route edges="-1 3 4"/>
    </vehicle>
    <vehicle id="480" depart="168.00">
        <route edges="-9 -6 5"/>
    </vehicle>
    <vehicle id="481" depart="168.35">
        <route edges="0 3 6 9"/>
    </vehicle>
    <vehicle id="484" depart="169.40">
        <route edges="-7 8"/>
    </vehicle>
    <vehicle id="485" depart="169.75">
        <route edges="-3 -0"/>
    </vehicle>
    <vehicle id="494" depart="172.90">
        <route edges="-9 -6 -3"/>
    </vehicle>
    <vehicle id="495" depart="173.25">
        <route edges="-5 -3"/>
    </vehicle>
    <vehicle id="496" depart="173.60">
        <route edges="-6 -3 2"/>
    </vehicle>
    <vehicle id="501" depart="175.35">
        <route edges="-7 9"/>
    </vehicle>
    <vehicle id="502" depart="175.70">
        <route edges="-5 -3 2"/>
    </vehicle>
    <vehicle id="503" depart="176.05">
        <route edges="-3"/>
    </vehicle>
    <vehicle id="504" depart="176.40">
        <route edges="3"/>
    </vehicle>
    <vehicle id="505" depart="176.75">
        <route edges="-8 -6 5"/>
    </vehicle>
    <vehicle id="506" depart="177.10">
        <route edges="-8 -6 -3 -0"/>
    </vehicle>
    <vehicle id="509" depart="178.15">
        <route edges="-1 3 6 7"/>
    </vehicle>
    <vehicle id="516" depart="180.60">
        <route edges="-8 -6 -3 -0"/>
    </vehicle>
    <vehicle id="517" depart="180.95">
        <route edges="-1 3 6 7"/>
    </vehicle>
    <vehicle id="519" depart="181.65">
        <route edges="-3 -0"/>
    </vehicle>
    <vehicle id="522" depart="182.70">
        <route edges="0 3 4"/>
    </vehicle>
    <vehicle id="528" depart="184.80">
        <route edges="-6 -3 2"/>
    </vehicle>
    <vehicle id="534" depart="186.90">
        <route edges="-4 6 9"/>
    </vehicle>
    <vehicle id="536" depart="187.60">
        <route edges="-8 -6 -3"/>
    </vehicle>
    <vehicle id="537" depart="187.95">
        <route edges="-9 8"/>
    </vehicle>
    <vehicle id="538" depart="188.30">
        <route edges="-8 7"/>
    </vehicle>
    <vehicle id="539" depart="188.65">
        <route edges="-9 -6"/>
    </vehicle>
    <vehicle id="540" depart="189.00">
        <route edges="-6"/>
    </vehicle>
    <vehicle id="542" depart="189.70">
        <route edges="-5 -3"/>
    </vehicle>
    <vehicle id="543" depart="190.05">
        <route edges="-6 5"/>
    </vehicle>
    <vehicle id="544" depart="190.40">
        <route edges="-5 -3"/>
    </vehicle>
    <vehicle id="548" depart="191.80">
        <route edges="0 3 4"/>
    </vehicle>
    <vehicle id="554" depart="193.90">
        <route edges="-8 -6 -3 2"/>
    </vehicle>
    <vehicle id="556" depart="194.60">
        <route edges="-8 -6"/>
    </vehicle>
    <vehicle id="560" depart="196.00">
        <route edges="3 6 9"/>
    </vehicle>
    <vehicle id="562" depart="196.70">
        <route edges="-8 -6 -3 -0"/>
    </vehicle>
    <vehicle id="563" depart="197.05">
        <route edges="6 7"/>
    </vehicle>
    <vehicle id="566" depart="198.10">
        <route edges="-5 -3 -0"/>
    </vehicle>
    <vehicle id="567" depart="198.45">
        <route edges="3 4"/>
    </vehicle>
    <vehicle id="568" depart="198.80">
        <route edges="-5 -3"/>
    </vehicle>
    <vehicle id="569" depart="199.15">
        <route edges="-8 -6 -3 -0"/>
    </vehicle>
    <vehicle id="570" depart="199.50">
        <route edges="-9 -6"/>
    </vehicle>
    <vehicle id="571" depart="199.85">
        <route edges="-6 -3 2"/>
    </vehicle>
    <vehicle id="573" depart="200.55">
        <route edges="0 3 4"/>
    </vehicle>
    <vehicle id="574" depart="200.90">
        <route edges="-2 -0"/>
    </vehicle>
    <vehicle id="582" depart="203.70">
        <route edges="-9 -6 -3 -0"/>
    </vehicle>
    <vehicle id="585" depart="204.75">
        <route edges="-3"/>
    </vehicle>
    <vehicle id="587" depart="205.45">
        <route edges="-1 3 6"/>
    </vehicle>
    <vehicle id="588" depart="205.80">
        <route edges="-3 2"/>
    </vehicle>
    <vehicle id="590" depart="206.50">
        <route edges="3 6 7"/>
    </vehicle>
    <vehicle id="596" depart="208.60">
        <route edges="-2 -0"/>
    </vehicle>
    <vehicle id="597" depart="208.95">
        <route edges="-4 6 7"/>
    </vehicle>
    <vehicle id="598" depart="209.30">
        <route edges="-8 7"/>
    </vehicle>
    <vehicle id="610" depart="213.50">
        <route edges="-8 7"/>
    </vehicle>
    <vehicle id="611" depart="213.85">
        <route edges="-8 -6"/>
    </vehicle>
    <vehicle id="612" depart="214.20">
        <route edges="0 3"/>
    </vehicle>
    <vehicle id="613" depart="214.55">
        <route edges="0 3 6 7"/>
    </vehicle>
    <vehicle id="617" depart="215.95">
        <route edges="-8 -6 -3"/>
    </vehicle>
    <vehicle id="618" depart="216.30">
        <route edges="-1 3"/>
    </vehicle>
    <vehicle id="620" depart="217.00">
        <route edges="-1 3 4"/>
    </vehicle>
    <vehicle id="622" depart="217.70">
        <route edges="-1 3 6 7"/>
    </vehicle>
    <vehicle id="627" depart="219.45">
        <route edges="3"/>
    </vehicle>
    <vehicle id="630" depart="220.50">
        <route edges="-2 -0"/>
    </vehicle>
    <vehicle id="642" depart="224.70">
        <route edges="-9 -6 5"/>
    </vehicle>
    <vehicle id="644" depart="225.40">
        <route edges="-5 4"/>
    </vehicle>
    <vehicle id="646" depart="226.10">
        <route edges="6"/>
    </vehicle>
    <vehicle id="650" depart="227.50">
        <route edges="0 3 6"/>
    </vehicle>
    <vehicle id="651" depart="227.85">
        <route edges="0 3 6"/>
    </vehicle>
    <vehicle id="654" depart="228.90">
        <route edges="-5 -3 2"/>
    </vehicle>
    <vehicle id="657" depart="229.95">
        <route edges="-3"/>
    </vehicle>
    <vehicle id="661" depart="231.35">
        <route edges="-1 2"/>
    </vehicle>
    <vehicle id="663" depart="232.05">
        <route edges="-5 -3"/>
    </vehicle>
    <vehicle id="664" depart="232.40">
        <route edges="0 3 6 7"/>
    </vehicle>
    <vehicle id="666" depart="233.10">
        <route edges="-6 -3 2"/>
    </vehicle>
    <vehicle id="667" depart="233.45">
        <route edges="-9 -6"/>
    </vehicle>
    <vehicle id="671" depart="234.85">
        <route edges="0 3"/>
    </vehicle>
    <vehicle id="673" depart="235.55">
        <route edges="6 9"/>
    </vehicle>
    <vehicle id="675" depart="236.25">
        <route edges="-5 4"/>
    </vehicle>
    <vehicle id="676" depart="236.60">
        <route edges="6 7"/>
    </vehicle>
    <vehicle id="678" depart="237.30">
        <route edges="-4 5"/>
    </vehicle>
    <vehicle id="679" depart="237.65">
        <route edges="3 4"/>
    </vehicle>
    <vehicle id="682" depart="238.70">
        <route edges="0 1"/>
    </vehicle>
    <vehicle id="686" depart="240.10">
        <route edges="-5 -3 -0"/>
    </vehicle>
    <vehicle id="687" depart="240.45">
        <route edges="-1 3 4"/>
    </vehicle>
    <vehicle id="689" depart="241.15">
        <route edges="-5 -3 -0"/>
    </vehicle>
    <vehicle id="691" depart="241.85">
        <route edges="-8 7"/>
    </vehicle>
    <vehicle id="692" depart="242.20">
        <route edges="-2 1"/>
    </vehicle>
    <vehicle id="693" depart="242.55">
        <route edges="0 3 6"/>
    </vehicle>
    <vehicle id="695" depart="243.25">
        <route edges="-6 -3 -0"/>
    </vehicle>
    <vehicle id="697" depart="243.95">
        <route edges="3 4"/>
    </vehicle>
    <vehicle id="699" depart="244.65">
        <route edges="-2 1"/>
    </vehicle>
    <vehicle id="702" depart="245.70">
        <route edges="-6 -3"/>
    </vehicle>
    <vehicle id="704" depart="246.40">
        <route edges="-1 3 4"/>
    </vehicle>
    <vehicle id="705" depart="246.75">
        <route edges="-3"/>
    </vehicle>
    <vehicle id="706" depart="247.10">
        <route edges="-6 5"/>
    </vehicle>
    <vehicle id="707" depart="247.45">
        <route edges="-3 2"/>
    </vehicle>
    <vehicle id="708" depart="247.80">
        <route edges="-8 -6 -3"/>
    </vehicle>
    <vehicle id="716" depart="250.60">
        <route edges="-9 -6 5"/>
    </vehicle>
    <vehicle id="717" depart="250.95">
        <route edges="0 3 6"/>
    </vehicle>
    <vehicle id="722" depart="252.70">
        <route edges="-8 7"/>
    </vehicle>
    <vehicle id="723" depart="253.05">
        <route edges="-1 3 6 7"/>
    </vehicle>
    <vehicle id="726" depart="254.10">
        <route edges="-1 3 6 9"/>
    </vehicle>
    <vehicle id="727" depart="254.45">
        <route edges="-7 9"/>
    </vehicle>
    <vehicle id="733" depart="256.55">
        <route edges="3 6"/>
    </vehicle>
    <vehicle id="738" depart="258.30">
        <route edges="-9 -6 -3 -0"/>
    </vehicle>
    <vehicle id="739" depart="258.65">
        <route edges="-8 7"/>
    </vehicle>
    <vehicle id="742" depart="259.70">
        <route edges="-4 5"/>
    </vehicle>
    <vehicle id="744" depart="260.40">
        <route edges="-5 -3 -0"/>
    </vehicle>
    <vehicle id="747" depart="261.45">
        <route edges="6 9"/>
    </vehicle>
    <vehicle id="753" depart="263.55">
        <route edges="-1 3 6 7"/>
    </vehicle>
    <vehicle id="754" depart="263.90">
        <route edges="-5 -3 2"/>
    </vehicle>
    <vehicle id="760" depart="266.00">
        <route edges="-3"/>
    </vehicle>
    <vehicle id="762" depart="266.70">
        <route edges="-5 4"/>
    </vehicle>
    <vehicle id="766" depart="268.10">
        <route edges="-6 -3"/>
    </vehicle>
    <vehicle id="767" depart="268.45">
        <route edges="3"/>
    </vehicle>
    <vehicle id="768" depart="268.80">
        <route edges="3"/>
    </vehicle>
    <vehicle id="771" depart="269.85">
        <route edges="-5 -3 -0"/>
    </vehicle>
    <vehicle id="772" depart="270.20">
        <route edges="-7 8"/>
    </vehicle>
    <vehicle id="773" depart="270.55">
        <route edges="3 6"/>
    </vehicle>
    <vehicle id="775" depart="271.25">
        <route edges="0 3 4"/>
    </vehicle>
    <vehicle id="778" depart="272.30">
        <route edges="-1 3 4"/>
    </vehicle>
    <vehicle id="781" depart="273.35">
        <route edges="-2 1"/>
    </vehicle>
    <vehicle id="782" depart="273.70">
        <route edges="6"/>
    </vehicle>
    <vehicle id="793" depart="277.55">
        <route edges="-4 6"/>
    </vehicle>
    <vehicle id="796" depart="278.60">
        <route edges="-4 5"/>
    </vehicle>
    <vehicle id="806" depart="282.10">
        <route edges="-8 7"/>
    </vehicle>
    <vehicle id="808" depart="282.80">
        <route edges="-6 5"/>
    </vehicle>
    <vehicle id="809" depart="283.15">
        <route edges="-4 6 9"/>
    </vehicle>
    <vehicle id="815" depart="285.25">
        <route edges="-4 6"/>
    </vehicle>
    <vehicle id="816" depart="285.60">
        <route edges="-9 8"/>
    </vehicle>
    <vehicle id="818" depart="286.30">
        <route edges="-5 4"/>
    </vehicle>
    <vehicle id="821" depart="287.35">
        <route edges="-2 1"/>
    </vehicle>
    <vehicle id="824" depart="288.40">
        <route edges="-2 1"/>
    </vehicle>
    <vehicle id="826" depart="289.10">
        <route edges="0 3"/>
    </vehicle>
    <vehicle id="831" depart="290.85">
        <route edges="-5 -3 -0"/>
    </vehicle>
    <vehicle id="834" depart="291.90">
        <route edges="-7 8"/>
    </vehicle>
    <vehicle id="837" depart="292.95">
        <route edges="-5 -3 2"/>
    </vehicle>
    <vehicle id="841" depart="294.35">
        <route edges="-4 6 9"/>
    </vehicle>
    <vehicle id="842" depart="294.70">
        <route edges="-9 -6 -3"/>
    </vehicle>
    <vehicle id="845" depart="295.75">
        <route edges="6 7"/>
    </vehicle>
    <vehicle id="848" depart="296.80">
        <route edges="-2 1"/>
    </vehicle>
    <vehicle id="851" depart="297.85">
        <route edges="-4 5"/>
    </vehicle>
    <vehicle id="856" depart="299.60">
        <route edges="-4 6 7"/>
    </vehicle>
    <vehicle id="859" depart="300.65">
        <route edges="0 3 6"/>
    </vehicle>
    <vehicle id="860" depart="301.00">
        <route edges="-9 -6 -3 -0"/>
    </vehicle>
    <vehicle id="862" depart="301.70">
        <route edges="0 3 6 7"/>
    </vehicle>
    <vehicle id="864" depart="302.40">
        <route edges="-8 -6"/>
    </vehicle>
    <vehicle id="865" depart="302.75">
        <route edges="-8 -6 5"/>
    </vehicle>
    <vehicle id="867" depart="303.45">
        <route edges="-9 -6 -3 -0"/>
    </vehicle>
    <vehicle id="873" depart="305.55">
        <route edges="-9 -6 -3 -0"/>
    </vehicle>
    <vehicle id="875" depart="306.25">
        <route edges="-4 5"/>
    </vehicle>
    <vehicle id="878" depart="307.30">
        <route edges="-5 -3 2"/>
    </vehicle>
    <vehicle id="879" depart="307.65">
        <route edges="0 3 6"/>
    </vehicle>
    <vehicle id="881" depart="308.35">
        <route edges="-8 -6"/>
    </vehicle>
    <vehicle id="887" depart="310.45">
        <route edges="6 7"/>
    </vehicle>
    <vehicle id="889" depart="311.15">
        <route edges="-9 -6 -3 2"/>
    </vehicle>
    <vehicle id="890" depart="311.50">
        <route edges="6 7"/>
    </vehicle>
    <vehicle id="891" depart="311.85">
        <route edges="6 7"/>
    </vehicle>
    <vehicle id="893" depart="312.55">
        <route edges="-9 -6 -3 2"/>
    </vehicle>
    <vehicle id="895" depart="313.25">
        <route edges="-6"/>
    </vehicle>
    <vehicle id="896" depart="313.60">
        <route edges="-7 9"/>
    </vehicle>
    <vehicle id="897" depart="313.95">
        <route edges="-9 -6 -3"/>
    </vehicle>
    <vehicle id="898" depart="314.30">
        <route edges="-8 -6 5"/>
    </vehicle>
    <vehicle id="901" depart="315.35">
        <route edges="-1 2"/>
    </vehicle>
    <vehicle id="902" depart="315.70">
        <route edges="-9 -6 -3"/>
    </vehicle>
    <vehicle id="904" depart="316.40">
        <route edges="-7 9"/>
    </vehicle>
    <vehicle id="906" depart="317.10">
        <route edges="3"/>
    </vehicle>
    <vehicle id="908" depart="317.80">
        <route edges="-4 5"/>
    </vehicle>
    <vehicle id="914" depart="319.90">
        <route edges="6 9"/>
    </vehicle>
    <vehicle id="916" depart="320.60">
        <route edges="6 9"/>
    </vehicle>
    <vehicle id="918" depart="321.30">
        <route edges="-1 3 4"/>
    </vehicle>
    <vehicle id="920" depart="322.00">