<?xml version="1.0" encoding="UTF-8"?>

<!-- generated on 2023-02-17 19:30:21 by Eclipse SUMO netedit Version 1.14.1
<configuration xmlns:xsi="http://www.w3.org/2001/XMLSchema-instance" xsi:noNamespaceSchemaLocation="http://sumo.dlr.de/xsd/netconvertConfiguration.xsd">

    <input>
        <sumo-net-file value="C:\Users\ZenBook\2023_Spring\DQN_demo%20-%20(3)\network\SUMO_Network.net.xml"/>
    </input>

    <output>
        <output-file value="C:\Users\ZenBook\2023_Spring\DQN_demo%20-%20(3)\network\SUMO_Network.net.xml"/>
    </output>

    <processing>
        <geometry.min-radius.fix.railways value="false"/>
        <geometry.max-grade.fix value="false"/>
        <offset.disable-normalization value="true"/>
        <lefthand value="false"/>
    </processing>

    <junctions>
        <no-turnarounds value="true"/>
        <junctions.corner-detail value="5"/>
        <junctions.limit-turn-speed value="5.5"/>
        <rectangular-lane-cut value="false"/>
    </junctions>

    <pedestrian>
        <walkingareas value="false"/>
    </pedestrian>

</configuration>
-->

<net version="1.9" junctionCornerDetail="5" limitTurnSpeed="5.50" xmlns:xsi="http://www.w3.org/2001/XMLSchema-instance" xsi:noNamespaceSchemaLocation="http://sumo.dlr.de/xsd/net_file.xsd">

    <location netOffset="0.00,0.00" convBoundary="0.00,-200.00,800.00,200.00" origBoundary="-10000000000.00,-10000000000.00,10000000000.00,10000000000.00" projParameter="!"/>

    <edge id=":J1_0" function="internal">
        <lane id=":J1_0_0" index="0" speed="13.89" length="27.20" shape="192.00,13.60 192.00,-13.60"/>
        <lane id=":J1_0_1" index="1" speed="13.89" length="27.20" shape="195.20,13.60 195.20,-13.60"/>
    </edge>
    <edge id=":J1_2" function="internal">
        <lane id=":J1_2_0" index="0" speed="10.36" length="12.07" shape="198.40,13.60 199.35,6.95 202.10,2.36"/>
    </edge>
    <edge id=":J1_12" function="internal">
        <lane id=":J1_12_0" index="0" speed="10.36" length="12.44" shape="202.10,2.36 202.20,2.20 206.95,-0.65 213.60,-1.60"/>
    </edge>
    <edge id=":J1_3" function="internal">
        <lane id=":J1_3_0" index="0" speed="13.89" length="27.20" shape="213.60,8.00 186.40,8.00"/>
        <lane id=":J1_3_1" index="1" speed="13.89" length="27.20" shape="213.60,4.80 186.40,4.80"/>
    </edge>
    <edge id=":J1_5" function="internal">
        <lane id=":J1_5_0" index="0" speed="10.36" length="12.07" shape="213.60,1.60 206.95,0.65 202.36,-2.10"/>
    </edge>
    <edge id=":J1_13" function="internal">
        <lane id=":J1_13_0" index="0" speed="10.36" length="12.44" shape="202.36,-2.10 202.20,-2.20 199.35,-6.95 198.40,-13.60"/>
    </edge>
    <edge id=":J1_6" function="internal">
        <lane id=":J1_6_0" index="0" speed="13.89" length="27.20" shape="208.00,-13.60 208.00,13.60"/>
        <lane id=":J1_6_1" index="1" speed="13.89" length="27.20" shape="204.80,-13.60 204.80,13.60"/>
    </edge>
    <edge id=":J1_8" function="internal">
        <lane id=":J1_8_0" index="0" speed="10.36" length="12.07" shape="201.60,-13.60 200.65,-6.95 197.90,-2.36"/>
    </edge>
    <edge id=":J1_14" function="internal">
        <lane id=":J1_14_0" index="0" speed="10.36" length="12.44" shape="197.90,-2.36 197.80,-2.20 193.05,0.65 186.40,1.60"/>
    </edge>
    <edge id=":J1_9" function="internal">
        <lane id=":J1_9_0" index="0" speed="13.89" length="27.20" shape="186.40,-8.00 213.60,-8.00"/>
        <lane id=":J1_9_1" index="1" speed="13.89" length="27.20" shape="186.40,-4.80 213.60,-4.80"/>
    </edge>
    <edge id=":J1_11" function="internal">
        <lane id=":J1_11_0" index="0" speed="10.36" length="12.07" shape="186.40,-1.60 193.05,-0.65 197.64,2.10"/>
    </edge>
    <edge id=":J1_15" function="internal">
        <lane id=":J1_15_0" index="0" speed="10.36" length="12.44" shape="197.64,2.10 197.80,2.20 200.65,6.95 201.60,13.60"/>
    </edge>
    <edge id=":J4_0" function="internal">
        <lane id=":J4_0_0" index="0" speed="13.89" length="27.20" shape="392.00,13.60 392.00,-13.60"/>
        <lane id=":J4_0_1" index="1" speed="13.89" length="27.20" shape="395.20,13.60 395.20,-13.60"/>
    </edge>
    <edge id=":J4_2" function="internal">
        <lane id=":J4_2_0" index="0" speed="10.36" length="12.07" shape="398.40,13.60 399.35,6.95 402.10,2.36"/>
    </edge>
    <edge id=":J4_12" function="internal">
        <lane id=":J4_12_0" index="0" speed="10.36" length="12.44" shape="402.10,2.36 402.20,2.20 406.95,-0.65 413.60,-1.60"/>
    </edge>
    <edge id=":J4_3" function="internal">
        <lane id=":J4_3_0" index="0" speed="13.89" length="27.20" shape="413.60,8.00 386.40,8.00"/>
        <lane id=":J4_3_1" index="1" speed="13.89" length="27.20" shape="413.60,4.80 386.40,4.80"/>
    </edge>
    <edge id=":J4_5" function="internal">
        <lane id=":J4_5_0" index="0" speed="10.36" length="12.07" shape="413.60,1.60 406.95,0.65 402.36,-2.10"/>
    </edge>
    <edge id=":J4_13" function="internal">
        <lane id=":J4_13_0" index="0" speed="10.36" length="12.44" shape="402.36,-2.10 402.20,-2.20 399.35,-6.95 398.40,-13.60"/>
    </edge>
    <edge id=":J4_6" function="internal">
        <lane id=":J4_6_0" index="0" speed="13.89" length="27.20" shape="408.00,-13.60 408.00,13.60"/>
        <lane id=":J4_6_1" index="1" speed="13.89" length="27.20" shape="404.80,-13.60 404.80,13.60"/>
    </edge>
    <edge id=":J4_8" function="internal">
        <lane id=":J4_8_0" index="0" speed="10.36" length="12.07" shape="401.60,-13.60 400.65,-6.95 397.90,-2.36"/>
    </edge>
    <edge id=":J4_14" function="internal">
        <lane id=":J4_14_0" index="0" speed="10.36" length="12.44" shape="397.90,-2.36 397.80,-2.20 393.05,0.65 386.40,1.60"/>
    </edge>
    <edge id=":J4_9" function="internal">
        <lane id=":J4_9_0" index="0" speed="13.89" length="27.20" shape="386.40,-8.00 413.60,-8.00"/>
        <lane id=":J4_9_1" index="1" speed="13.89" length="27.20" shape="386.40,-4.80 413.60,-4.80"/>
    </edge>
    <edge id=":J4_11" function="internal">
        <lane id=":J4_11_0" index="0" speed="10.36" length="12.07" shape="386.40,-1.60 393.05,-0.65 397.64,2.10"/>
    </edge>
    <edge id=":J4_15" function="internal">
        <lane id=":J4_15_0" index="0" speed="10.36" length="12.44" shape="397.64,2.10 397.80,2.20 400.65,6.95 401.60,13.60"/>
    </edge>
    <edge id=":J7_0" function="internal">
        <lane id=":J7_0_0" index="0" speed="13.89" length="27.20" shape="592.00,13.60 592.00,-13.60"/>
        <lane id=":J7_0_1" index="1" speed="13.89" length="27.20" shape="595.20,13.60 595.20,-13.60"/>
    </edge>
    <edge id=":J7_2" function="internal">
        <lane id=":J7_2_0" index="0" speed="10.36" length="12.07" shape="598.40,13.60 599.35,6.95 602.10,2.36"/>
    </edge>
    <edge id=":J7_12" function="internal">
        <lane id=":J7_12_0" index="0" speed="10.36" length="12.44" shape="602.10,2.36 602.20,2.20 606.95,-0.65 613.60,-1.60"/>
    </edge>
    <edge id=":J7_3" function="internal">
        <lane id=":J7_3_0" index="0" speed="13.89" length="27.20" shape="613.60,8.00 586.40,8.00"/>
        <lane id=":J7_3_1" index="1" speed="13.89" length="27.20" shape="613.60,4.80 586.40,4.80"/>
    </edge>
    <edge id=":J7_5" function="internal">
        <lane id=":J7_5_0" index="0" speed="10.36" length="12.07" shape="613.60,1.60 606.95,0.65 602.36,-2.10"/>
    </edge>
    <edge id=":J7_13" function="internal">
        <lane id=":J7_13_0" index="0" speed="10.36" length="12.44" shape="602.36,-2.10 602.20,-2.20 599.35,-6.95 598.40,-13.60"/>
    </edge>
    <edge id=":J7_6" function="internal">
        <lane id=":J7_6_0" index="0" speed="13.89" length="27.20" shape="608.00,-13.60 608.00,13.60"/>
        <lane id=":J7_6_1" index="1" speed="13.89" length="27.20" shape="604.80,-13.60 604.80,13.60"/>
    </edge>
    <edge id=":J7_8" function="internal">
        <lane id=":J7_8_0" index="0" speed="10.36" length="12.07" shape="601.60,-13.60 600.65,-6.95 597.90,-2.36"/>
    </edge>
    <edge id=":J7_14" function="internal">
        <lane id=":J7_14_0" index="0" speed="10.36" length="12.44" shape="597.90,-2.36 597.80,-2.20 593.05,0.65 586.40,1.60"/>
    </edge>
    <edge id=":J7_9" function="internal">
        <lane id=":J7_9_0" index="0" speed="13.89" length="27.20" shape="586.40,-8.00 613.60,-8.00"/>
        <lane id=":J7_9_1" index="1" speed="13.89" length="27.20" shape="586.40,-4.80 613.60,-4.80"/>
    </edge>
    <edge id=":J7_11" function="internal">
        <lane id=":J7_11_0" index="0" speed="10.36" length="12.07" shape="586.40,-1.60 593.05,-0.65 597.64,2.10"/>
    </edge>
    <edge id=":J7_15" function="internal">
        <lane id=":J7_15_0" index="0" speed="10.36" length="12.44" shape="597.64,2.10 597.80,2.20 600.65,6.95 601.60,13.60"/>
    </edge>

    <edge id="-0" from="J1" to="J0" priority="-1">
        <lane id="-0_0" index="0" speed="13.89" length="186.40" shape="186.40,8.00 0.00,8.00"/>
        <lane id="-0_1" index="1" speed="13.89" length="186.40" shape="186.40,4.80 0.00,4.80"/>
        <lane id="-0_2" index="2" speed="13.89" length="186.40" shape="186.40,1.60 0.00,1.60"/>
    </edge>
    <edge id="-1" from="J2" to="J1" priority="-1">
        <lane id="-1_0" index="0" speed="13.89" length="186.40" shape="192.00,200.00 192.00,13.60"/>
        <lane id="-1_1" index="1" speed="13.89" length="186.40" shape="195.20,200.00 195.20,13.60"/>
        <lane id="-1_2" index="2" speed="13.89" length="186.40" shape="198.40,200.00 198.40,13.60"/>
    </edge>
    <edge id="-2" from="J3" to="J1" priority="-1">
        <lane id="-2_0" index="0" speed="13.89" length="186.40" shape="208.00,-200.00 208.00,-13.60"/>
        <lane id="-2_1" index="1" speed="13.89" length="186.40" shape="204.80,-200.00 204.80,-13.60"/>
        <lane id="-2_2" index="2" speed="13.89" length="186.40" shape="201.60,-200.00 201.60,-13.60"/>
    </edge>
    <edge id="-3" from="J4" to="J1" priority="-1">
        <lane id="-3_0" index="0" speed="13.89" length="172.80" shape="386.40,8.00 213.60,8.00"/>
        <lane id="-3_1" index="1" speed="13.89" length="172.80" shape="386.40,4.80 213.60,4.80"/>
        <lane id="-3_2" index="2" speed="13.89" length="172.80" shape="386.40,1.60 213.60,1.60"/>
    </edge>
    <edge id="-4" from="J5" to="J4" priority="-1">
        <lane id="-4_0" index="0" speed="13.89" length="186.40" shape="392.00,200.00 392.00,13.60"/>
        <lane id="-4_1" index="1" speed="13.89" length="186.40" shape="395.20,200.00 395.20,13.60"/>
        <lane id="-4_2" index="2" speed="13.89" length="186.40" shape="398.40,200.00 398.40,13.60"/>
    </edge>
    <edge id="-5" from="J6" to="J4" priority="-1">
        <lane id="-5_0" index="0" speed="13.89" length="186.40" shape="408.00,-200.00 408.00,-13.60"/>
        <lane id="-5_1" index="1" speed="13.89" length="186.40" shape="404.80,-200.00 404.80,-13.60"/>
        <lane id="-5_2" index="2" speed="13.89" length="186.40" shape="401.60,-200.00 401.60,-13.60"/>
    </edge>
    <edge id="-6" from="J7" to="J4" priority="-1">
        <lane id="-6_0" index="0" speed="13.89" length="172.80" shape="586.40,8.00 413.60,8.00"/>
        <lane id="-6_1" index="1" speed="13.89" length="172.80" shape="586.40,4.80 413.60,4.80"/>
        <lane id="-6_2" index="2" speed="13.89" length="172.80" shape="586.40,1.60 413.60,1.60"/>
    </edge>
    <edge id="-7" from="J8" to="J7" priority="-1">
        <lane id="-7_0" index="0" speed="13.89" length="186.40" shape="592.00,200.00 592.00,13.60"/>
        <lane id="-7_1" index="1" speed="13.89" length="186.40" shape="595.20,200.00 595.20,13.60"/>
        <lane id="-7_2" index="2" speed="13.89" length="186.40" shape="598.40,200.00 598.40,13.60"/>
    </edge>
    <edge id="-8" from="J9" to="J7" priority="-1">
        <lane id="-8_0" index="0" speed="13.89" length="186.40" shape="608.00,-200.00 608.00,-13.60"/>
        <lane id="-8_1" index="1" speed="13.89" length="186.40" shape="604.80,-200.00 604.80,-13.60"/>
        <lane id="-8_2" index="2" speed="13.89" length="186.40" shape="601.60,-200.00 601.60,-13.60"/>
    </edge>
    <edge id="-9" from="J10" to="J7" priority="-1">
        <lane id="-9_0" index="0" speed="13.89" length="186.40" shape="800.00,8.00 613.60,8.00"/>
        <lane id="-9_1" index="1" speed="13.89" length="186.40" shape="800.00,4.80 613.60,4.80"/>
        <lane id="-9_2" index="2" speed="13.89" length="186.40" shape="800.00,1.60 613.60,1.60"/>
    </edge>
    <edge id="0" from="J0" to="J1" priority="-1">
        <lane id="0_0" index="0" speed="13.89" length="186.40" shape="0.00,-8.00 186.40,-8.00"/>
        <lane id="0_1" index="1" speed="13.89" length="186.40" shape="0.00,-4.80 186.40,-4.80"/>
        <lane id="0_2" index="2" speed="13.89" length="186.40" shape="0.00,-1.60 186.40,-1.60"/>
    </edge>
    <edge id="1" from="J1" to="J2" priority="-1">
        <lane id="1_0" index="0" speed="13.89" length="186.40" shape="208.00,13.60 208.00,200.00"/>
        <lane id="1_1" index="1" speed="13.89" length="186.40" shape="204.80,13.60 204.80,200.00"/>
        <lane id="1_2" index="2" speed="13.89" length="186.40" shape="201.60,13.60 201.60,200.00"/>
    </edge>
    <edge id="2" from="J1" to="J3" priority="-1">
        <lane id="2_0" index="0" speed="13.89" length="186.40" shape="192.00,-13.60 192.00,-200.00"/>
        <lane id="2_1" index="1" speed="13.89" length="186.40" shape="195.20,-13.60 195.20,-200.00"/>
        <lane id="2_2" index="2" speed="13.89" length="186.40" shape="198.40,-13.60 198.40,-200.00"/>
    </edge>
    <edge id="3" from="J1" to="J4" priority="-1">
        <lane id="3_0" index="0" speed="13.89" length="172.80" shape="213.60,-8.00 386.40,-8.00"/>
        <lane id="3_1" index="1" speed="13.89" length="172.80" shape="213.60,-4.80 386.40,-4.80"/>
        <lane id="3_2" index="2" speed="13.89" length="172.80" shape="213.60,-1.60 386.40,-1.60"/>
    </edge>
    <edge id="4" from="J4" to="J5" priority="-1">
        <lane id="4_0" index="0" speed="13.89" length="186.40" shape="408.00,13.60 408.00,200.00"/>
        <lane id="4_1" index="1" speed="13.89" length="186.40" shape="404.80,13.60 404.80,200.00"/>
        <lane id="4_2" index="2" speed="13.89" length="186.40" shape="401.60,13.60 401.60,200.00"/>
    </edge>
    <edge id="5" from="J4" to="J6" priority="-1">
        <lane id="5_0" index="0" speed="13.89" length="186.40" shape="392.00,-13.60 392.00,-200.00"/>
        <lane id="5_1" index="1" speed="13.89" length="186.40" shape="395.20,-13.60 395.20,-200.00"/>
        <lane id="5_2" index="2" speed="13.89" length="186.40" shape="398.40,-13.60 398.40,-200.00"/>
    </edge>
    <edge id="6" from="J4" to="J7" priority="-1">
        <lane id="6_0" index="0" speed="13.89" length="172.80" shape="413.60,-8.00 586.40,-8.00"/>
        <lane id="6_1" index="1" speed="13.89" length="172.80" shape="413.60,-4.80 586.40,-4.80"/>
        <lane id="6_2" index="2" speed="13.89" length="172.80" shape="413.60,-1.60 586.40,-1.60"/>
    </edge>
    <edge id="7" from="J7" to="J8" priority="-1">
        <lane id="7_0" index="0" speed="13.89" length="186.40" shape="608.00,13.60 608.00,200.00"/>
        <lane id="7_1" index="1" speed="13.89" length="186.40" shape="604.80,13.60 604.80,200.00"/>
        <lane id="7_2" index="2" speed="13.89" length="186.40" shape="601.60,13.60 601.60,200.00"/>
    </edge>
    <edge id="8" from="J7" to="J9" priority="-1">
        <lane id="8_0" index="0" speed="13.89" length="186.40" shape="592.00,-13.60 592.00,-200.00"/>
        <lane id="8_1" index="1" speed="13.89" length="186.40" shape="595.20,-13.60 595.20,-200.00"/>
        <lane id="8_2" index="2" speed="13.89" length="186.40" shape="598.40,-13.60 598.40,-200.00"/>
    </edge>
    <edge id="9" from="J7" to="J10" priority="-1">
        <lane id="9_0" index="0" speed="13.89" length="186.40" shape="613.60,-8.00 800.00,-8.00"/>
        <lane id="9_1" index="1" speed="13.89" length="186.40" shape="613.60,-4.80 800.00,-4.80"/>
        <lane id="9_2" index="2" speed="13.89" length="186.40" shape="613.60,-1.60 800.00,-1.60"/>
    </edge>

    <tlLogic id="J1" type="static" programID="0" offset="0">
        <phase duration="33" state="GGgrrrGGgrrr"/>
        <phase duration="3"  state="yygrrryygrrr"/>
        <phase duration="6"  state="rrGrrrrrGrrr"/>
        <phase duration="3"  state="rryrrrrryrrr"/>
        <phase duration="33" state="rrrGGgrrrGGg"/>
        <phase duration="3"  state="rrryygrrryyg"/>
        <phase duration="6"  state="rrrrrGrrrrrG"/>
        <phase duration="3"  state="rrrrryrrrrry"/>
    </tlLogic>
    <tlLogic id="J4" type="static" programID="0" offset="0">
        <phase duration="33" state="GGgrrrGGgrrr"/>
        <phase duration="3"  state="yygrrryygrrr"/>
        <phase duration="6"  state="rrGrrrrrGrrr"/>
        <phase duration="3"  state="rryrrrrryrrr"/>
        <phase duration="33" state="rrrGGgrrrGGg"/>
        <phase duration="3"  state="rrryygrrryyg"/>
        <phase duration="6"  state="rrrrrGrrrrrG"/>
        <phase duration="3"  state="rrrrryrrrrry"/>
    </tlLogic>
    <tlLogic id="J7" type="static" programID="0" offset="0">
        <phase duration="33" state="GGgrrrGGgrrr"/>
        <phase duration="3"  state="yygrrryygrrr"/>
        <phase duration="6"  state="rrGrrrrrGrrr"/>
        <phase duration="3"  state="rryrrrrryrrr"/>
        <phase duration="33" state="rrrGGgrrrGGg"/>
        <phase duration="3"  state="rrryygrrryyg"/>
        <phase duration="6"  state="rrrrrGrrrrrG"/>
        <phase duration="3"  state="rrrrryrrrrry"/>
    </tlLogic>

    <junction id="J0" type="dead_end" x="0.00" y="0.00" incLanes="-0_0 -0_1 -0_2" intLanes="" shape="0.00,0.00 0.00,9.60 0.00,0.00"/>
    <junction id="J1" type="traffic_light" x="200.00" y="0.00" incLanes="-1_0 -1_1 -1_2 -3_0 -3_1 -3_2 -2_0 -2_1 -2_2 0_0 0_1 0_2" intLanes=":J1_0_0 :J1_0_1 :J1_12_0 :J1_3_0 :J1_3_1 :J1_13_0 :J1_6_0 :J1_6_1 :J1_14_0 :J1_9_0 :J1_9_1 :J1_15_0" shape="190.40,13.60 209.60,13.60 210.04,11.38 210.60,10.60 211.38,10.04 212.38,9.71 213.60,9.60 213.60,-9.60 211.38,-10.04 210.60,-10.60 210.04,-11.38 209.71,-12.38 209.60,-13.60 190.40,-13.60 189.96,-11.38 189.40,-10.60 188.62,-10.04 187.62,-9.71 186.40,-9.60 186.40,9.60 188.62,10.04 189.40,10.60 189.96,11.38 190.29,12.38">
        <request index="0"  response="100000000000" foes="111100011000" cont="0"/>
        <request index="1"  response="100000000000" foes="111100011000" cont="0"/>
        <request index="2"  response="100011100000" foes="100011111000" cont="1"/>
        <request index="3"  response="000011000111" foes="100011000111" cont="0"/>
        <request index="4"  response="000011000111" foes="100011000111" cont="0"/>
        <request index="5"  response="011111000100" foes="011111000100" cont="1"/>
        <request index="6"  response="000000100000" foes="011000111100" cont="0"/>
        <request index="7"  response="000000100000" foes="011000111100" cont="0"/>
        <request index="8"  response="100000100011" foes="111000100011" cont="1"/>
        <request index="9"  response="000111000011" foes="000111100011" cont="0"/>
        <request index="10" response="000111000011" foes="000111100011" cont="0"/>
        <request index="11" response="000100011111" foes="000100011111" cont="1"/>
    </junction>
    <junction id="J10" type="dead_end" x="800.00" y="0.00" incLanes="9_0 9_1 9_2" intLanes="" shape="800.00,0.00 800.00,-9.60 800.00,0.00"/>
    <junction id="J2" type="dead_end" x="200.00" y="200.00" incLanes="1_0 1_1 1_2" intLanes="" shape="200.00,200.00 209.60,200.00 200.00,200.00"/>
    <junction id="J3" type="dead_end" x="200.00" y="-200.00" incLanes="2_0 2_1 2_2" intLanes="" shape="200.00,-200.00 190.40,-200.00 200.00,-200.00"/>
    <junction id="J4" type="traffic_light" x="400.00" y="0.00" incLanes="-4_0 -4_1 -4_2 -6_0 -6_1 -6_2 -5_0 -5_1 -5_2 3_0 3_1 3_2" intLanes=":J4_0_0 :J4_0_1 :J4_12_0 :J4_3_0 :J4_3_1 :J4_13_0 :J4_6_0 :J4_6_1 :J4_14_0 :J4_9_0 :J4_9_1 :J4_15_0" shape="390.40,13.60 409.60,13.60 410.04,11.38 410.60,10.60 411.38,10.04 412.38,9.71 413.60,9.60 413.60,-9.60 411.38,-10.04 410.60,-10.60 410.04,-11.38 409.71,-12.38 409.60,-13.60 390.40,-13.60 389.96,-11.38 389.40,-10.60 388.62,-10.04 387.62,-9.71 386.40,-9.60 386.40,9.60 388.62,10.04 389.40,10.60 389.96,11.38 390.29,12.38">
        <request index="0"  response="100000000000" foes="111100011000" cont="0"/>
        <request index="1"  response="100000000000" foes="111100011000" cont="0"/>
        <request index="2"  response="100011100000" foes="100011111000" cont="1"/>
        <request index="3"  response="000011000111" foes="100011000111" cont="0"/>
        <request index="4"  response="000011000111" foes="100011000111" cont="0"/>
        <request index="5"  response="011111000100" foes="011111000100" cont="1"/>
        <request index="6"  response="000000100000" foes="011000111100" cont="0"/>
        <request index="7"  response="000000100000" foes="011000111100" cont="0"/>
        <request index="8"  response="100000100011" foes="111000100011" cont="1"/>
        <request index="9"  response="000111000011" foes="000111100011" cont="0"/>
        <request index="10" response="000111000011" foes="000111100011" cont="0"/>
        <request index="11" response="000100011111" foes="000100011111" cont="1"/>
    </junction>
    <junction id="J5" type="dead_end" x="400.00" y="200.00" incLanes="4_0 4_1 4_2" intLanes="" shape="400.00,200.00 409.60,200.00 400.00,200.00"/>
    <junction id="J6" type="dead_end" x="400.00" y="-200.00" incLanes="5_0 5_1 5_2" intLanes="" shape="400.00,-200.00 390.40,-200.00 400.00,-200.00"/>
    <junction id="J7" type="traffic_light" x="600.00" y="0.00" incLanes="-7_0 -7_1 -7_2 -9_0 -9_1 -9_2 -8_0 -8_1 -8_2 6_0 6_1 6_2" intLanes=":J7_0_0 :J7_0_1 :J7_12_0 :J7_3_0 :J7_3_1 :J7_13_0 :J7_6_0 :J7_6_1 :J7_14_0 :J7_9_0 :J7_9_1 :J7_15_0" shape="590.40,13.60 609.60,13.60 610.04,11.38 610.60,10.60 611.38,10.04 612.38,9.71 613.60,9.60 613.60,-9.60 611.38,-10.04 610.60,-10.60 610.04,-11.38 609.71,-12.38 609.60,-13.60 590.40,-13.60 589.96,-11.38 589.40,-10.60 588.62,-10.04 587.62,-9.71 586.40,-9.60 586.40,9.60 588.62,10.04 589.40,10.60 589.96,11.38 590.29,12.38">
        <request index="0"  response="100000000000" foes="111100011000" cont="0"/>
        <request index="1"  response="100000000000" foes="111100011000" cont="0"/>
        <request index="2"  response="100011100000" foes="100011111000" cont="1"/>
        <request index="3"  response="000011000111" foes="100011000111" cont="0"/>
        <request index="4"  response="000011000111" foes="100011000111" cont="0"/>
        <request index="5"  response="011111000100" foes="011111000100" cont="1"/>
        <request index="6"  response="000000100000" foes="011000111100" cont="0"/>
        <request index="7"  response="000000100000" foes="011000111100" cont="0"/>
        <request index="8"  response="100000100011" foes="111000100011" cont="1"/>
        <request index="9"  response="000111000011" foes="000111100011" cont="0"/>
        <request index="10" response="000111000011" foes="000111100011" cont="0"/>
        <request index="11" response="000100011111" foes="000100011111" cont="1"/>
    </junction>
    <junction id="J8" type="dead_end" x="600.00" y="200.00" incLanes="7_0 7_1 7_2" intLanes="" shape="600.00,200.00 609.60,200.00 600.00,200.00"/>
    <junction id="J9" type="dead_end" x="600.00" y="-200.00" incLanes="8_0 8_1 8_2" intLanes="" shape="600.00,-200.00 590.40,-200.00 600.00,-200.00"/>

    <junction id=":J1_12_0" type="internal" x="202.10" y="2.36" incLanes=":J1_2_0 -2_0 -2_1" intLanes=":J1_3_0 :J1_3_1 :J1_5_0 :J1_6_0 :J1_6_1 :J1_11_0"/>
    <junction id=":J1_13_0" type="internal" x="202.36" y="-2.10" incLanes=":J1_5_0 0_0 0_1" intLanes=":J1_2_0 :J1_6_0 :J1_6_1 :J1_8_0 :J1_9_0 :J1_9_1"/>
    <junction id=":J1_14_0" type="internal" x="197.90" y="-2.36" incLanes=":J1_8_0 -1_0 -1_1" intLanes=":J1_0_0 :J1_0_1 :J1_5_0 :J1_9_0 :J1_9_1 :J1_11_0"/>
    <junction id=":J1_15_0" type="internal" x="197.64" y="2.10" incLanes=":J1_11_0 -3_0 -3_1" intLanes=":J1_0_0 :J1_0_1 :J1_2_0 :J1_3_0 :J1_3_1 :J1_8_0"/>
    <junction id=":J4_12_0" type="internal" x="402.10" y="2.36" incLanes=":J4_2_0 -5_0 -5_1" intLanes=":J4_3_0 :J4_3_1 :J4_5_0 :J4_6_0 :J4_6_1 :J4_11_0"/>
    <junction id=":J4_13_0" type="internal" x="402.36" y="-2.10" incLanes=":J4_5_0 3_0 3_1" intLanes=":J4_2_0 :J4_6_0 :J4_6_1 :J4_8_0 :J4_9_0 :J4_9_1"/>
    <junction id=":J4_14_0" type="internal" x="397.90" y="-2.36" incLanes=":J4_8_0 -4_0 -4_1" intLanes=":J4_0_0 :J4_0_1 :J4_5_0 :J4_9_0 :J4_9_1 :J4_11_0"/>
    <junction id=":J4_15_0" type="internal" x="397.64" y="2.10" incLanes=":J4_11_0 -6_0 -6_1" intLanes=":J4_0_0 :J4_0_1 :J4_2_0 :J4_3_0 :J4_3_1 :J4_8_0"/>
    <junction id=":J7_12_0" type="internal" x="602.10" y="2.36" incLanes=":J7_2_0 -8_0 -8_1" intLanes=":J7_3_0 :J7_3_1 :J7_5_0 :J7_6_0 :J7_6_1 :J7_11_0"/>
    <junction id=":J7_13_0" type="internal" x="602.36" y="-2.10" incLanes=":J7_5_0 6_0 6_1" intLanes=":J7_2_0 :J7_6_0 :J7_6_1 :J7_8_0 :J7_9_0 :J7_9_1"/>
    <junction id=":J7_14_0" type="internal" x="597.90" y="-2.36" incLanes=":J7_8_0 -7_0 -7_1" intLanes=":J7_0_0 :J7_0_1 :J7_5_0 :J7_9_0 :J7_9_1 :J7_11_0"/>
    <junction id=":J7_15_0" type="internal" x="597.64" y="2.10" incLanes=":J7_11_0 -9_0 -9_1" intLanes=":J7_0_0 :J7_0_1 :J7_2_0 :J7_3_0 :J7_3_1 :J7_8_0"/>

    <connection from="-1" to="2" fromLane="0" toLane="0" via=":J1_0_0" tl="J1" linkIndex="0" dir="s" state="O"/>
    <connection from="-1" to="2" fromLane="1" toLane="1" via=":J1_0_1" tl="J1" linkIndex="1" dir="s" state="O"/>
    <connection from="-1" to="3" fromLane="2" toLane="2" via=":J1_2_0" tl="J1" linkIndex="2" dir="l" state="o"/>
    <connection from="-2" to="1" fromLane="0" toLane="0" via=":J1_6_0" tl="J1" linkIndex="6" dir="s" state="O"/>
    <connection from="-2" to="1" fromLane="1" toLane="1" via=":J1_6_1" tl="J1" linkIndex="7" dir="s" state="O"/>
    <connection from="-2" to="-0" fromLane="2" toLane="2" via=":J1_8_0" tl="J1" linkIndex="8" dir="l" state="o"/>
    <connection from="-3" to="-0" fromLane="0" toLane="0" via=":J1_3_0" tl="J1" linkIndex="3" dir="s" state="o"/>
    <connection from="-3" to="-0" fromLane="1" toLane="1" via=":J1_3_1" tl="J1" linkIndex="4" dir="s" state="o"/>
    <connection from="-3" to="2" fromLane="2" toLane="2" via=":J1_5_0" tl="J1" linkIndex="5" dir="l" state="o"/>
    <connection from="-4" to="5" fromLane="0" toLane="0" via=":J4_0_0" tl="J4" linkIndex="0" dir="s" state="O"/>
    <connection from="-4" to="5" fromLane="1" toLane="1" via=":J4_0_1" tl="J4" linkIndex="1" dir="s" state="O"/>
    <connection from="-4" to="6" fromLane="2" toLane="2" via=":J4_2_0" tl="J4" linkIndex="2" dir="l" state="o"/>
    <connection from="-5" to="4" fromLane="0" toLane="0" via=":J4_6_0" tl="J4" linkIndex="6" dir="s" state="O"/>
    <connection from="-5" to="4" fromLane="1" toLane="1" via=":J4_6_1" tl="J4" linkIndex="7" dir="s" state="O"/>
    <connection from="-5" to="-3" fromLane="2" toLane="2" via=":J4_8_0" tl="J4" linkIndex="8" dir="l" state="o"/>
    <connection from="-6" to="-3" fromLane="0" toLane="0" via=":J4_3_0" tl="J4" linkIndex="3" dir="s" state="o"/>
    <connection from="-6" to="-3" fromLane="1" toLane="1" via=":J4_3_1" tl="J4" linkIndex="4" dir="s" state="o"/>
    <connection from="-6" to="5" fromLane="2" toLane="2" via=":J4_5_0" tl="J4" linkIndex="5" dir="l" state="o"/>
    <connection from="-7" to="8" fromLane="0" toLane="0" via=":J7_0_0" tl="J7" linkIndex="0" dir="s" state="O"/>
    <connection from="-7" to="8" fromLane="1" toLane="1" via=":J7_0_1" tl="J7" linkIndex="1" dir="s" state="O"/>
    <connection from="-7" to="9" fromLane="2" toLane="2" via=":J7_2_0" tl="J7" linkIndex="2" dir="l" state="o"/>
    <connection from="-8" to="7" fromLane="0" toLane="0" via=":J7_6_0" tl="J7" linkIndex="6" dir="s" state="O"/>
    <connection from="-8" to="7" fromLane="1" toLane="1" via=":J7_6_1" tl="J7" linkIndex="7" dir="s" state="O"/>
    <connection from="-8" to="-6" fromLane="2" toLane="2" via=":J7_8_0" tl="J7" linkIndex="8" dir="l" state="o"/>
    <connection from="-9" to="-6" fromLane="0" toLane="0" via=":J7_3_0" tl="J7" linkIndex="3" dir="s" state="o"/>
    <connection from="-9" to="-6" fromLane="1" toLane="1" via=":J7_3_1" tl="J7" linkIndex="4" dir="s" state="o"/>
    <connection from="-9" to="8" fromLane="2" toLane="2" via=":J7_5_0" tl="J7" linkIndex="5" dir="l" state="o"/>
    <connection from="0" to="3" fromLane="0" toLane="0" via=":J1_9_0" tl="J1" linkIndex="9" dir="s" state="o"/>
    <connection from="0" to="3" fromLane="1" toLane="1" via=":J1_9_1" tl="J1" linkIndex="10" dir="s" state="o"/>
    <connection from="0" to="1" fromLane="2" toLane="2" via=":J1_11_0" tl="J1" linkIndex="11" dir="l" state="o"/>
    <connection from="3" to="6" fromLane="0" toLane="0" via=":J4_9_0" tl="J4" linkIndex="9" dir="s" state="o"/>
    <connection from="3" to="6" fromLane="1" toLane="1" via=":J4_9_1" tl="J4" linkIndex="10" dir="s" state="o"/>
    <connection from="3" to="4" fromLane="2" toLane="2" via=":J4_11_0" tl="J4" linkIndex="11" dir="l" state="o"/>
    <connection from="6" to="9" fromLane="0" toLane="0" via=":J7_9_0" tl="J7" linkIndex="9" dir="s" state="o"/>
    <connection from="6" to="9" fromLane="1" toLane="1" via=":J7_9_1" tl="J7" linkIndex="10" dir="s" state="o"/>
    <connection from="6" to="7" fromLane="2" toLane="2" via=":J7_11_0" tl="J7" linkIndex="11" dir="l" state="o"/>

    <connection from=":J1_0" to="2" fromLane="0" toLane="0" dir="s" state="M"/>
    <connection from=":J1_0" to="2" fromLane="1" toLane="1" dir="s" state="M"/>
    <connection from=":J1_2" to="3" fromLane="0" toLane="2" via=":J1_12_0" dir="l" state="m"/>